Version 4
SHEET 1 880 680
TEXT 88 120 Left 2 !;Circircuto RL\nVin 1 0 Pulse(0V,5V,0s,1ns,1ns,1ms,2ms)\nR1 1 2 10k\nR2 2 3 4.7k\nR3 2 0 10k\nL1 3 0 4.29mH\n.tran 100us 10ms\n;.ac dec 10 10Hz 1000000k\n.end
